L24/1726521/GD.dss
! GERACAO DISTRIBUIDA — gerada de UGBT_tab e UGMT_tab
! Unidades com potencia nula sao omitidas (gerariam NaN).
! 106 unidades descartadas por potencia nula.
! 381 unidades de BT realocadas para o secundario do transformador (rede secundaria nao modelada).
! 0 unidades descartadas por ponto de conexao ausente da rede.
! irradiance=1 — ver o docstring: 1,0 e meio-dia de ceu claro, nao a ponta de carga.
! 1 barras tiveram a GD limitada a capacidade do transformador (3 kW cortados).
! inversores em pf=1 — ver o docstring de _pv: 0,92 e capacidade exigida pelo PRODIST, nao despacho.
! 0 unidades de MT ligadas pelo PAC da carga (casadas por CEG_GD): o PAC da UGMT nao existe na SSDMT.
New PVSystem.GD_30a74b2676bfc231151a9db4c426e78b61be2a25d58301c48c999c88beb22286_1 phases=1 bus1=node_451744608.1.4 conn=wye kv=0.1200 pf=1 pmpp=5.00 kva=5.00 irradiance=1 temperature=25 %cutin=20 %cutout=20 effcurve=MyEff P-TCurve=MyPvsT Daily=IRRAD_DIA TDaily=TEMP_DIA
New PVSystem.GD_30a74b2676bfc231151a9db4c426e78b61be2a25d58301c48c999c88beb22286_2 phases=1 bus1=node_451744608.2.4 conn=wye kv=0.1200 pf=1 pmpp=5.00 kva=5.00 irradiance=1 temperature=25 %cutin=20 %cutout=20 effcurve=MyEff P-TCurve=MyPvsT Daily=IRRAD_DIA TDaily=TEMP_DIA
New PVSystem.GD_cd31e8fa3202e52d0f7402427656927b6986a83072894e828599b82fdca51afc_1 phases=1 bus1=node_412123300.1.4 conn=wye kv=0.1200 pf=1 pmpp=0.85 kva=0.85 irradiance=1 temperature=25 %cutin=20 %cutout=20 effcurve=MyEff P-TCurve=MyPvsT Daily=IRRAD_DIA TDaily=TEMP_DIA
New PVSystem.GD_cd31e8fa3202e52d0f7402427656927b6986a83072894e828599b82fdca51afc_2 phases=1 bus1=node_412123300.2.4 conn=wye kv=0.1200 pf=1 pmpp=0.85 kva=0.85 irradiance=1 temperature=25 %cutin=20 %cutout=20 effcurve=MyEff P-TCurve=MyPvsT Daily=IRRAD_DIA TDaily=TEMP_DIA
New PVSystem.GD_65aecaa78a86816b92b8ced5a461ae0c11ce55acfe6aff41c8f2c2383e3f7886_1 phases=1 bus1=node_412124173.1.4 conn=wye kv=0.1200 pf=1 pmpp=4.19 kva=4.19 irradiance=1 temperature=25 %cutin=20 %cutout=20 effcurve=MyEff P-TCurve=MyPvsT Daily=IRRAD_DIA TDaily=TEMP_DIA
New PVSystem.GD_65aecaa78a86816b92b8ced5a461ae0c11ce55acfe6aff41c8f2c2383e3f7886_2 phases=1 bus1=node_412124173.2.4 conn=wye kv=0.1200 pf=1 pmpp=4.19 kva=4.19 irradiance=1 temperature=25 %cutin=20 %cutout=20 effcurve=MyEff P-TCurve=MyPvsT Daily=IRRAD_DIA TDaily=TEMP_DIA
New PVSystem.GD_36cd7386f73a78828db98d402fc527905bdbc351586d310ee2c95b3ecf346511_1 phases=1 bus1=node_412123426.1.4 conn=wye kv=0.1200 pf=1 pmpp=0.72 kva=0.72 irradiance=1 temperature=25 %cutin=20 %cutout=20 effcurve=MyEff P-TCurve=MyPvsT Daily=IRRAD_DIA TDaily=TEMP_DIA
New PVSystem.GD_36cd7386f73a78828db98d402fc527905bdbc351586d310ee2c95b3ecf346511_2 phases=1 bus1=node_412123426.2.4 conn=wye kv=0.1200 pf=1 pmpp=0.72 kva=0.72 irradiance=1 temperature=25 %cutin=20 %cutout=20 effcurve=MyEff P-TCurve=MyPvsT Daily=IRRAD_DIA TDaily=TEMP_DIA
New PVSystem.GD_f18bab15db7c9ceed782823d56760be4bcecc4fd9e9dd97c45ca2f6e6767e204_1 phases=1 bus1=node_418013633.1.4 conn=wye kv=0.1200 pf=1 pmpp=0.17 kva=0.17 irradiance=1 temperature=25 %cutin=20 %cutout=20 effcurve=MyEff P-TCurve=MyPvsT Daily=IRRAD_DIA TDaily=TEMP_DIA
New PVSystem.GD_f18bab15db7c9ceed782823d56760be4bcecc4fd9e9dd97c45ca2f6e6767e204_2 phases=1 bus1=node_418013633.2.4 conn=wye kv=0.1200 pf=1 pmpp=0.17 kva=0.17 irradiance=1 temperature=25 %cutin=20 %cutout=20 effcurve=MyEff P-TCurve=MyPvsT Daily=IRRAD_DIA TDaily=TEMP_DIA
New PVSystem.GD_f2f90459ba03e4c4d6b965b7d64de9f004c285a84f731bb8c4888f3680b820f4_1 phases=1 bus1=node_418486554.1.4 conn=wye kv=0.1200 pf=1 pmpp=2.73 kva=2.73 irradiance=1 temperature=25 %cutin=20 %cutout=20 effcurve=MyEff P-TCurve=MyPvsT Daily=IRRAD_DIA TDaily=TEMP_DIA
New PVSystem.GD_f2f90459ba03e4c4d6b965b7d64de9f004c285a84f731bb8c4888f3680b820f4_2 phases=1 bus1=node_418486554.2.4 conn=wye kv=0.1200 pf=1 pmpp=2.73 kva=2.73 irradiance=1 temperature=25 %cutin=20 %cutout=20 effcurve=MyEff P-TCurve=MyPvsT Daily=IRRAD_DIA TDaily=TEMP_DIA
New PVSystem.GD_eca8aa8f2e2306a9df6c74fcdbdc38ecdb4c7b8f3a61833d1fe2eca295870d11_1 phases=1 bus1=node_418014176.1.4 conn=wye kv=0.1200 pf=1 pmpp=2.13 kva=2.13 irradiance=1 temperature=25 %cutin=20 %cutout=20 effcurve=MyEff P-TCurve=MyPvsT Daily=IRRAD_DIA TDaily=TEMP_DIA
New PVSystem.GD_eca8aa8f2e2306a9df6c74fcdbdc38ecdb4c7b8f3a61833d1fe2eca295870d11_2 phases=1 bus1=node_418014176.2.4 conn=wye kv=0.1200 pf=1 pmpp=2.13 kva=2.13 irradiance=1 temperature=25 %cutin=20 %cutout=20 effcurve=MyEff P-TCurve=MyPvsT Daily=IRRAD_DIA TDaily=TEMP_DIA
New PVSystem.GD_8bf803455d966a4b85dc356032114c34a76a776e0cf72808608b09c1b8273632_1 phases=1 bus1=node_419611402.1.4 conn=wye kv=0.1200 pf=1 pmpp=0.69 kva=0.69 irradiance=1 temperature=25 %cutin=20 %cutout=20 effcurve=MyEff P-TCurve=MyPvsT Daily=IRRAD_DIA TDaily=TEMP_DIA
New PVSystem.GD_8bf803455d966a4b85dc356032114c34a76a776e0cf72808608b09c1b8273632_2 phases=1 bus1=node_419611402.2.4 conn=wye kv=0.1200 pf=1 pmpp=0.69 kva=0.69 irradiance=1 temperature=25 %cutin=20 %cutout=20 effcurve=MyEff P-TCurve=MyPvsT Daily=IRRAD_DIA TDaily=TEMP_DIA
New PVSystem.GD_19953157729b16dfc5c28a1f03fc5cd5664278835cd00ebaa8276b56f3b38017_1 phases=1 bus1=node_418012532.1.4 conn=wye kv=0.1200 pf=1 pmpp=1.99 kva=1.99 irradiance=1 temperature=25 %cutin=20 %cutout=20 effcurve=MyEff P-TCurve=MyPvsT Daily=IRRAD_DIA TDaily=TEMP_DIA
New PVSystem.GD_19953157729b16dfc5c28a1f03fc5cd5664278835cd00ebaa8276b56f3b38017_2 phases=1 bus1=node_418012532.2.4 conn=wye kv=0.1200 pf=1 pmpp=1.99 kva=1.99 irradiance=1 temperature=25 %cutin=20 %cutout=20 effcurve=MyEff P-TCurve=MyPvsT Daily=IRRAD_DIA TDaily=TEMP_DIA
New PVSystem.GD_9f1b74f532f6e2843b9425556b7cf016a50310ac0141d360de939508e947d72b_1 phases=1 bus1=node_418012979.1.4 conn=wye kv=0.1200 pf=1 pmpp=1.91 kva=1.91 irradiance=1 temperature=25 %cutin=20 %cutout=20 effcurve=MyEff P-TCurve=MyPvsT Daily=IRRAD_DIA TDaily=TEMP_DIA
New PVSystem.GD_9f1b74f532f6e2843b9425556b7cf016a50310ac0141d360de939508e947d72b_2 phases=1 bus1=node_418012979.2.4 conn=wye kv=0.1200 pf=1 pmpp=1.91 kva=1.91 irradiance=1 temperature=25 %cutin=20 %cutout=20 effcurve=MyEff P-TCurve=MyPvsT Daily=IRRAD_DIA TDaily=TEMP_DIA
New PVSystem.GD_4448e86700bb8fb6018337b8c6c9551d99604989a2e7d72b726ae85ce47cbf3c_1 phases=1 bus1=node_419683246.1.4 conn=wye kv=0.1200 pf=1 pmpp=3.58 kva=3.58 irradiance=1 temperature=25 %cutin=20 %cutout=20 effcurve=MyEff P-TCurve=MyPvsT Daily=IRRAD_DIA TDaily=TEMP_DIA
New PVSystem.GD_4448e86700bb8fb6018337b8c6c9551d99604989a2e7d72b726ae85ce47cbf3c_2 phases=1 bus1=node_419683246.2.4 conn=wye kv=0.1200 pf=1 pmpp=3.58 kva=3.58 irradiance=1 temperature=25 %cutin=20 %cutout=20 effcurve=MyEff P-TCurve=MyPvsT Daily=IRRAD_DIA TDaily=TEMP_DIA
New PVSystem.GD_94888ed372e476e0826dbccececf61a64761a6cc95baf50d361f6577d40f94ba_1 phases=1 bus1=node_419717438.1.4 conn=wye kv=0.1200 pf=1 pmpp=6.02 kva=6.02 irradiance=1 temperature=25 %cutin=20 %cutout=20 effcurve=MyEff P-TCurve=MyPvsT Daily=IRRAD_DIA TDaily=TEMP_DIA
New PVSystem.GD_94888ed372e476e0826dbccececf61a64761a6cc95baf50d361f6577d40f94ba_2 phases=1 bus1=node_419717438.2.4 conn=wye kv=0.1200 pf=1 pmpp=6.02 kva=6.02 irradiance=1 temperature=25 %cutin=20 %cutout=20 effcurve=MyEff P-TCurve=MyPvsT Daily=IRRAD_DIA TDaily=TEMP_DIA
New PVSystem.GD_e059dab01fbb2f72640c09f73d4a52117d22d5001ccb0f868d13e064ae3868b8_1 phases=1 bus1=node_418014236.1.4 conn=wye kv=0.1200 pf=1 pmpp=2.07 kva=2.07 irradiance=1 temperature=25 %cutin=20 %cutout=20 effcurve=MyEff P-TCurve=MyPvsT Daily=IRRAD_DIA TDaily=TEMP_DIA
New PVSystem.GD_e059dab01fbb2f72640c09f73d4a52117d22d5001ccb0f868d13e064ae3868b8_2 phases=1 bus1=node_418014236.2.4 conn=wye kv=0.1200 pf=1 pmpp=2.07 kva=2.07 irradiance=1 temperature=25 %cutin=20 %cutout=20 effcurve=MyEff P-TCurve=MyPvsT Daily=IRRAD_DIA TDaily=TEMP_DIA
New PVSystem.GD_019e78db21d7862237a551f082a1ec3f6a8858779a12455babdd1ceccb73c167_1 phases=1 bus1=node_404861007.1.4 conn=wye kv=0.1200 pf=1 pmpp=0.67 kva=0.67 irradiance=1 temperature=25 %cutin=20 %cutout=20 effcurve=MyEff P-TCurve=MyPvsT Daily=IRRAD_DIA TDaily=TEMP_DIA
New PVSystem.GD_019e78db21d7862237a551f082a1ec3f6a8858779a12455babdd1ceccb73c167_2 phases=1 bus1=node_404861007.2.4 conn=wye kv=0.1200 pf=1 pmpp=0.67 kva=0.67 irradiance=1 temperature=25 %cutin=20 %cutout=20 effcurve=MyEff P-TCurve=MyPvsT Daily=IRRAD_DIA TDaily=TEMP_DIA
New PVSystem.GD_232e0cd085da6bebe36d72e82b862dfc4e7dd56cef28282934ad469904650ca5_1 phases=1 bus1=node_418014215.1.4 conn=wye kv=0.1200 pf=1 pmpp=7.74 kva=7.74 irradiance=1 temperature=25 %cutin=20 %cutout=20 effcurve=MyEff P-TCurve=MyPvsT Daily=IRRAD_DIA TDaily=TEMP_DIA
New PVSystem.GD_232e0cd085da6bebe36d72e82b862dfc4e7dd56cef28282934ad469904650ca5_2 phases=1 bus1=node_418014215.2.4 conn=wye kv=0.1200 pf=1 pmpp=7.74 kva=7.74 irradiance=1 temperature=25 %cutin=20 %cutout=20 effcurve=MyEff P-TCurve=MyPvsT Daily=IRRAD_DIA TDaily=TEMP_DIA
New PVSystem.GD_83cb43ad70a1c15551634cff0950cf05566c09c7fa5c94926efabc24f53ba508_1 phases=1 bus1=node_418488063.1.4 conn=wye kv=0.1200 pf=1 pmpp=0.22 kva=0.22 irradiance=1 temperature=25 %cutin=20 %cutout=20 effcurve=MyEff P-TCurve=MyPvsT Daily=IRRAD_DIA TDaily=TEMP_DIA
New PVSystem.GD_83cb43ad70a1c15551634cff0950cf05566c09c7fa5c94926efabc24f53ba508_2 phases=1 bus1=node_418488063.2.4 conn=wye kv=0.1200 pf=1 pmpp=0.22 kva=0.22 irradiance=1 temperature=25 %cutin=20 %cutout=20 effcurve=MyEff P-TCurve=MyPvsT Daily=IRRAD_DIA TDaily=TEMP_DIA
New PVSystem.GD_f583fc8006184b8fcd3190c0b09b7969cb0ee21bf6c1a3a4ab3dd05709198d79_1 phases=1 bus1=node_418012418.1.4 conn=wye kv=0.1200 pf=1 pmpp=2.00 kva=2.00 irradiance=1 temperature=25 %cutin=20 %cutout=20 effcurve=MyEff P-TCurve=MyPvsT Daily=IRRAD_DIA TDaily=TEMP_DIA
New PVSystem.GD_f583fc8006184b8fcd3190c0b09b7969cb0ee21bf6c1a3a4ab3dd05709198d79_2 phases=1 bus1=node_418012418.2.4 conn=wye kv=0.1200 pf=1 pmpp=2.00 kva=2.00 irradiance=1 temperature=25 %cutin=20 %cutout=20 effcurve=MyEff P-TCurve=MyPvsT Daily=IRRAD_DIA TDaily=TEMP_DIA
New PVSystem.GD_d1050a1fc25863ae6bc984f08866143e58ba98f019d0935d3acf6a9f2eccfd21_1 phases=1 bus1=node_418012634.1.4 conn=wye kv=0.1200 pf=1 pmpp=1.54 kva=1.54 irradiance=1 temperature=25 %cutin=20 %cutout=20 effcurve=MyEff P-TCurve=MyPvsT Daily=IRRAD_DIA TDaily=TEMP_DIA
New PVSystem.GD_d1050a1fc25863ae6bc984f08866143e58ba98f019d0935d3acf6a9f2eccfd21_2 phases=1 bus1=node_418012634.2.4 conn=wye kv=0.1200 pf=1 pmpp=1.54 kva=1.54 irradiance=1 temperature=25 %cutin=20 %cutout=20 effcurve=MyEff P-TCurve=MyPvsT Daily=IRRAD_DIA TDaily=TEMP_DIA
New PVSystem.GD_47354e31a16e90480e3e56139d66dc8d1d244c32dc607f920bddca0d193ca63a_1 phases=1 bus1=node_418014290.1.4 conn=wye kv=0.1200 pf=1 pmpp=2.12 kva=2.12 irradiance=1 temperature=25 %cutin=20 %cutout=20 effcurve=MyEff P-TCurve=MyPvsT Daily=IRRAD_DIA TDaily=TEMP_DIA
New PVSystem.GD_47354e31a16e90480e3e56139d66dc8d1d244c32dc607f920bddca0d193ca63a_2 phases=1 bus1=node_418014290.2.4 conn=wye kv=0.1200 pf=1 pmpp=2.12 kva=2.12 irradiance=1 temperature=25 %cutin=20 %cutout=20 effcurve=MyEff P-TCurve=MyPvsT Daily=IRRAD_DIA TDaily=TEMP_DIA
New PVSystem.GD_54ce51a28aa65702f729e1d899c3b34782eecd4870b2c826a515f4621cfa3b6b_1 phases=1 bus1=node_419683237.1.4 conn=wye kv=0.1200 pf=1 pmpp=1.43 kva=1.43 irradiance=1 temperature=25 %cutin=20 %cutout=20 effcurve=MyEff P-TCurve=MyPvsT Daily=IRRAD_DIA TDaily=TEMP_DIA
New PVSystem.GD_54ce51a28aa65702f729e1d899c3b34782eecd4870b2c826a515f4621cfa3b6b_2 phases=1 bus1=node_419683237.2.4 conn=wye kv=0.1200 pf=1 pmpp=1.43 kva=1.43 irradiance=1 temperature=25 %cutin=20 %cutout=20 effcurve=MyEff P-TCurve=MyPvsT Daily=IRRAD_DIA TDaily=TEMP_DIA
New PVSystem.GD_0d209d0084572a8aceba7dc4d79af7496ab1c0f5e3b06743e8fb2bb2f881da1f_1 phases=1 bus1=node_418012463.1.4 conn=wye kv=0.1200 pf=1 pmpp=1.15 kva=1.15 irradiance=1 temperature=25 %cutin=20 %cutout=20 effcurve=MyEff P-TCurve=MyPvsT Daily=IRRAD_DIA TDaily=TEMP_DIA
New PVSystem.GD_0d209d0084572a8aceba7dc4d79af7496ab1c0f5e3b06743e8fb2bb2f881da1f_2 phases=1 bus1=node_418012463.2.4 conn=wye kv=0.1200 pf=1 pmpp=1.15 kva=1.15 irradiance=1 temperature=25 %cutin=20 %cutout=20 effcurve=MyEff P-TCurve=MyPvsT Daily=IRRAD_DIA TDaily=TEMP_DIA
New PVSystem.GD_243596089d426ce28a9aca2c5c18686598cbf4a42af8a77e5672164e67b309e5_1 phases=1 bus1=node_418012457.1.4 conn=wye kv=0.1200 pf=1 pmpp=0.91 kva=0.91 irradiance=1 temperature=25 %cutin=20 %cutout=20 effcurve=MyEff P-TCurve=MyPvsT Daily=IRRAD_DIA TDaily=TEMP_DIA
New PVSystem.GD_243596089d426ce28a9aca2c5c18686598cbf4a42af8a77e5672164e67b309e5_2 phases=1 bus1=node_418012457.2.4 conn=wye kv=0.1200 pf=1 pmpp=0.91 kva=0.91 irradiance=1 temperature=25 %cutin=20 %cutout=20 effcurve=MyEff P-TCurve=MyPvsT Daily=IRRAD_DIA TDaily=TEMP_DIA
New PVSystem.GD_b35d38057811ecdfe84975d64f224ec75fc16b985c83f0f0438e6f90de6e8250_1 phases=1 bus1=node_418014161.1.4 conn=wye kv=0.1200 pf=1 pmpp=3.78 kva=3.78 irradiance=1 temperature=25 %cutin=20 %cutout=20 effcurve=MyEff P-TCurve=MyPvsT Daily=IRRAD_DIA TDaily=TEMP_DIA
New PVSystem.GD_b35d38057811ecdfe84975d64f224ec75fc16b985c83f0f0438e6f90de6e8250_2 phases=1 bus1=node_418014161.2.4 conn=wye kv=0.1200 pf=1 pmpp=3.78 kva=3.78 irradiance=1 temperature=25 %cutin=20 %cutout=20 effcurve=MyEff P-TCurve=MyPvsT Daily=IRRAD_DIA TDaily=TEMP_DIA
New PVSystem.GD_6275ab3f58a8431c4ac89ab3bbfb2a8cbe90a98466b36f3f06ab2b05d671baf6_1 phases=1 bus1=node_418013201.1.4 conn=wye kv=0.1200 pf=1 pmpp=3.97 kva=3.97 irradiance=1 temperature=25 %cutin=20 %cutout=20 effcurve=MyEff P-TCurve=MyPvsT Daily=IRRAD_DIA TDaily=TEMP_DIA
New PVSystem.GD_6275ab3f58a8431c4ac89ab3bbfb2a8cbe90a98466b36f3f06ab2b05d671baf6_2 phases=1 bus1=node_418013201.2.4 conn=wye kv=0.1200 pf=1 pmpp=3.97 kva=3.97 irradiance=1 temperature=25 %cutin=20 %cutout=20 effcurve=MyEff P-TCurve=MyPvsT Daily=IRRAD_DIA TDaily=TEMP_DIA
New PVSystem.GD_5cfad3d725ef0ba7a75b407c402b52e3359e9fe702f907b86d6ebd4f91407c54_1 phases=1 bus1=node_418013237.1.4 conn=wye kv=0.1200 pf=1 pmpp=3.39 kva=3.39 irradiance=1 temperature=25 %cutin=20 %cutout=20 effcurve=MyEff P-TCurve=MyPvsT Daily=IRRAD_DIA TDaily=TEMP_DIA
New PVSystem.GD_5cfad3d725ef0ba7a75b407c402b52e3359e9fe702f907b86d6ebd4f91407c54_2 phases=1 bus1=node_418013237.2.4 conn=wye kv=0.1200 pf=1 pmpp=3.39 kva=3.39 irradiance=1 temperature=25 %cutin=20 %cutout=20 effcurve=MyEff P-TCurve=MyPvsT Daily=IRRAD_DIA TDaily=TEMP_DIA
New PVSystem.GD_7a47a6e3e6aa9c30cb972da1c9a653abbe1e7d1ceb6db4b83ffd35ab96e687c0_1 phases=1 bus1=node_418013000.1.4 conn=wye kv=0.1200 pf=1 pmpp=1.10 kva=1.10 irradiance=1 temperature=25 %cutin=20 %cutout=20 effcurve=MyEff P-TCurve=MyPvsT Daily=IRRAD_DIA TDaily=TEMP_DIA
New PVSystem.GD_7a47a6e3e6aa9c30cb972da1c9a653abbe1e7d1ceb6db4b83ffd35ab96e687c0_2 phases=1 bus1=node_418013000.2.4 conn=wye kv=0.1200 pf=1 pmpp=1.10 kva=1.10 irradiance=1 temperature=25 %cutin=20 %cutout=20 effcurve=MyEff P-TCurve=MyPvsT Daily=IRRAD_DIA TDaily=TEMP_DIA
New PVSystem.GD_12737be47b45306c7ee03a9d5ecd71a2608aad4b43bb15713fbf12ded03b89e7_1 phases=1 bus1=node_419573267.1.4 conn=wye kv=0.1200 pf=1 pmpp=2.21 kva=2.21 irradiance=1 temperature=25 %cutin=20 %cutout=20 effcurve=MyEff P-TCurve=MyPvsT Daily=IRRAD_DIA TDaily=TEMP_DIA
New PVSystem.GD_12737be47b45306c7ee03a9d5ecd71a2608aad4b43bb15713fbf12ded03b89e7_2 phases=1 bus1=node_419573267.2.4 conn=wye kv=0.1200 pf=1 pmpp=2.21 kva=2.21 irradiance=1 temperature=25 %cutin=20 %cutout=20 effcurve=MyEff P-TCurve=MyPvsT Daily=IRRAD_DIA TDaily=TEMP_DIA
New PVSystem.GD_ac38f8d1afb383ac66b226ac0e618e74358218483bf6a8f058aec7ba77f45793_1 phases=1 bus1=node_418012523.1.4 conn=wye kv=0.1200 pf=1 pmpp=0.49 kva=0.49 irradiance=1 temperature=25 %cutin=20 %cutout=20 effcurve=MyEff P-TCurve=MyPvsT Daily=IRRAD_DIA TDaily=TEMP_DIA
New PVSystem.GD_ac38f8d1afb383ac66b226ac0e618e74358218483bf6a8f058aec7ba77f45793_2 phases=1 bus1=node_418012523.2.4 conn=wye kv=0.1200 pf=1 pmpp=0.49 kva=0.49 irradiance=1 temperature=25 %cutin=20 %cutout=20 effcurve=MyEff P-TCurve=MyPvsT Daily=IRRAD_DIA TDaily=TEMP_DIA
New PVSystem.GD_72103d78db85795b8496cd6f1fa8f6809ee25da9abd03469a995575320bf57a9_1 phases=1 bus1=node_2498379358.1.4 conn=wye kv=0.1270 pf=1 pmpp=16.61 kva=16.61 irradiance=1 temperature=25 %cutin=20 %cutout=20 effcurve=MyEff P-TCurve=MyPvsT Daily=IRRAD_DIA TDaily=TEMP_DIA
New PVSystem.GD_72103d78db85795b8496cd6f1fa8f6809ee25da9abd03469a995575320bf57a9_2 phases=1 bus1=node_2498379358.2.4 conn=wye kv=0.1270 pf=1 pmpp=16.61 kva=16.61 irradiance=1 temperature=25 %cutin=20 %cutout=20 effcurve=MyEff P-TCurve=MyPvsT Daily=IRRAD_DIA TDaily=TEMP_DIA
New PVSystem.GD_72103d78db85795b8496cd6f1fa8f6809ee25da9abd03469a995575320bf57a9_3 phases=1 bus1=node_2498379358.3.4 conn=wye kv=0.1270 pf=1 pmpp=16.61 kva=16.61 irradiance=1 temperature=25 %cutin=20 %cutout=20 effcurve=MyEff P-TCurve=MyPvsT Daily=IRRAD_DIA TDaily=TEMP_DIA
New PVSystem.GD_dcc1b7b1323f3714dd84794ebd7ab037073de727b317e58be5e37093f9c73c0e_1 phases=1 bus1=node_419506590.1.4 conn=wye kv=0.1270 pf=1 pmpp=10.99 kva=10.99 irradiance=1 temperature=25 %cutin=20 %cutout=20 effcurve=MyEff P-TCurve=MyPvsT Daily=IRRAD_DIA TDaily=TEMP_DIA
New PVSystem.GD_dcc1b7b1323f3714dd84794ebd7ab037073de727b317e58be5e37093f9c73c0e_2 phases=1 bus1=node_419506590.2.4 conn=wye kv=0.1270 pf=1 pmpp=10.99 kva=10.99 irradiance=1 temperature=25 %cutin=20 %cutout=20 effcurve=MyEff P-TCurve=MyPvsT Daily=IRRAD_DIA TDaily=TEMP_DIA
New PVSystem.GD_dcc1b7b1323f3714dd84794ebd7ab037073de727b317e58be5e37093f9c73c0e_3 phases=1 bus1=node_419506590.3.4 conn=wye kv=0.1270 pf=1 pmpp=10.99 kva=10.99 irradiance=1 temperature=25 %cutin=20 %cutout=20 effcurve=MyEff P-TCurve=MyPvsT Daily=IRRAD_DIA TDaily=TEMP_DIA
New PVSystem.GD_2721bc97ce7081b8c61a5f4b15475afdad8ed9bb3da09f74221baba6d5704772_1 phases=1 bus1=node_408207781.1.4 conn=wye kv=0.1270 pf=1 pmpp=0.35 kva=0.35 irradiance=1 temperature=25 %cutin=20 %cutout=20 effcurve=MyEff P-TCurve=MyPvsT Daily=IRRAD_DIA TDaily=TEMP_DIA
New PVSystem.GD_2721bc97ce7081b8c61a5f4b15475afdad8ed9bb3da09f74221baba6d5704772_2 phases=1 bus1=node_408207781.2.4 conn=wye kv=0.1270 pf=1 pmpp=0.35 kva=0.35 irradiance=1 temperature=25 %cutin=20 %cutout=20 effcurve=MyEff P-TCurve=MyPvsT Daily=IRRAD_DIA TDaily=TEMP_DIA
New PVSystem.GD_2721bc97ce7081b8c61a5f4b15475afdad8ed9bb3da09f74221baba6d5704772_3 phases=1 bus1=node_408207781.3.4 conn=wye kv=0.1270 pf=1 pmpp=0.35 kva=0.35 irradiance=1 temperature=25 %cutin=20 %cutout=20 effcurve=MyEff P-TCurve=MyPvsT Daily=IRRAD_DIA TDaily=TEMP_DIA
New PVSystem.GD_cbc4d25570906fec2d6e27b600dd58f072717b02ac1e3c142331ffd68f746721_1 phases=1 bus1=node_408207781.1.4 conn=wye kv=0.1270 pf=1 pmpp=0.90 kva=0.90 irradiance=1 temperature=25 %cutin=20 %cutout=20 effcurve=MyEff P-TCurve=MyPvsT Daily=IRRAD_DIA TDaily=TEMP_DIA
New PVSystem.GD_cbc4d25570906fec2d6e27b600dd58f072717b02ac1e3c142331ffd68f746721_2 phases=1 bus1=node_408207781.2.4 conn=wye kv=0.1270 pf=1 pmpp=0.90 kva=0.90 irradiance=1 temperature=25 %cutin=20 %cutout=20 effcurve=MyEff P-TCurve=MyPvsT Daily=IRRAD_DIA TDaily=TEMP_DIA
New PVSystem.GD_cbc4d25570906fec2d6e27b600dd58f072717b02ac1e3c142331ffd68f746721_3 phases=1 bus1=node_408207781.3.4 conn=wye kv=0.1270 pf=1 pmpp=0.90 kva=0.90 irradiance=1 temperature=25 %cutin=20 %cutout=20 effcurve=MyEff P-TCurve=MyPvsT Daily=IRRAD_DIA TDaily=TEMP_DIA
New PVSystem.GD_0f8b17fe87f44620fe35f65b740669144acf97edac6a95b38ceb6edf29f947eb_1 phases=1 bus1=node_408207781.1.4 conn=wye kv=0.1270 pf=1 pmpp=0.48 kva=0.48 irradiance=1 temperature=25 %cutin=20 %cutout=20 effcurve=MyEff P-TCurve=MyPvsT Daily=IRRAD_DIA TDaily=TEMP_DIA
New PVSystem.GD_0f8b17fe87f44620fe35f65b740669144acf97edac6a95b38ceb6edf29f947eb_2 phases=1 bus1=node_408207781.2.4 conn=wye kv=0.1270 pf=1 pmpp=0.48 kva=0.48 irradiance=1 temperature=25 %cutin=20 %cutout=20 effcurve=MyEff P-TCurve=MyPvsT Daily=IRRAD_DIA TDaily=TEMP_DIA
New PVSystem.GD_0f8b17fe87f44620fe35f65b740669144acf97edac6a95b38ceb6edf29f947eb_3 phases=1 bus1=node_408207781.3.4 conn=wye kv=0.1270 pf=1 pmpp=0.48 kva=0.48 irradiance=1 temperature=25 %cutin=20 %cutout=20 effcurve=MyEff P-TCurve=MyPvsT Daily=IRRAD_DIA TDaily=TEMP_DIA
New PVSystem.GD_87a0e7a247e9fc7bbd5ff521ba5c17009d4ab517b918b85ad2b39379b33317a9_1 phases=1 bus1=node_408207781.1.4 conn=wye kv=0.1270 pf=1 pmpp=0.23 kva=0.23 irradiance=1 temperature=25 %cutin=20 %cutout=20 effcurve=MyEff P-TCurve=MyPvsT Daily=IRRAD_DIA TDaily=TEMP_DIA
New PVSystem.GD_87a0e7a247e9fc7bbd5ff521ba5c17009d4ab517b918b85ad2b39379b33317a9_2 phases=1 bus1=node_408207781.2.4 conn=wye kv=0.1270 pf=1 pmpp=0.23 kva=0.23 irradiance=1 temperature=25 %cutin=20 %cutout=20 effcurve=MyEff P-TCurve=MyPvsT Daily=IRRAD_DIA TDaily=TEMP_DIA
New PVSystem.GD_87a0e7a247e9fc7bbd5ff521ba5c17009d4ab517b918b85ad2b39379b33317a9_3 phases=1 bus1=node_408207781.3.4 conn=wye kv=0.1270 pf=1 pmpp=0.23 kva=0.23 irradiance=1 temperature=25 %cutin=20 %cutout=20 effcurve=MyEff P-TCurve=MyPvsT Daily=IRRAD_DIA TDaily=TEMP_DIA
New PVSystem.GD_963ccef19cb107ac5bf515cd431acc668ed01999658b7dd7854bf9f84d7f8505_1 phases=1 bus1=node_408207781.1.4 conn=wye kv=0.1270 pf=1 pmpp=0.66 kva=0.66 irradiance=1 temperature=25 %cutin=20 %cutout=20 effcurve=MyEff P-TCurve=MyPvsT Daily=IRRAD_DIA TDaily=TEMP_DIA
New PVSystem.GD_963ccef19cb107ac5bf515cd431acc668ed01999658b7dd7854bf9f84d7f8505_2 phases=1 bus1=node_408207781.2.4 conn=wye kv=0.1270 pf=1 pmpp=0.66 kva=0.66 irradiance=1 temperature=25 %cutin=20 %cutout=20 effcurve=MyEff P-TCurve=MyPvsT Daily=IRRAD_DIA TDaily=TEMP_DIA
New PVSystem.GD_963ccef19cb107ac5bf515cd431acc668ed01999658b7dd7854bf9f84d7f8505_3 phases=1 bus1=node_408207781.3.4 conn=wye kv=0.1270 pf=1 pmpp=0.66 kva=0.66 irradiance=1 temperature=25 %cutin=20 %cutout=20 effcurve=MyEff P-TCurve=MyPvsT Daily=IRRAD_DIA TDaily=TEMP_DIA
New PVSystem.GD_104e6ea157113c023deff63b243ddd0be059e25308fd6af79ac7ead3285a5ed1_1 phases=1 bus1=node_408207781.1.4 conn=wye kv=0.1270 pf=1 pmpp=0.99 kva=0.99 irradiance=1 temperature=25 %cutin=20 %cutout=20 effcurve=MyEff P-TCurve=MyPvsT Daily=IRRAD_DIA TDaily=TEMP_DIA
New PVSystem.GD_104e6ea157113c023deff63b243ddd0be059e25308fd6af79ac7ead3285a5ed1_2 phases=1 bus1=node_408207781.2.4 conn=wye kv=0.1270 pf=1 pmpp=0.99 kva=0.99 irradiance=1 temperature=25 %cutin=20 %cutout=20 effcurve=MyEff P-TCurve=MyPvsT Daily=IRRAD_DIA TDaily=TEMP_DIA
New PVSystem.GD_104e6ea157113c023deff63b243ddd0be059e25308fd6af79ac7ead3285a5ed1_3 phases=1 bus1=node_408207781.3.4 conn=wye kv=0.1270 pf=1 pmpp=0.99 kva=0.99 irradiance=1 temperature=25 %cutin=20 %cutout=20 effcurve=MyEff P-TCurve=MyPvsT Daily=IRRAD_DIA TDaily=TEMP_DIA
New PVSystem.GD_45c9c5ded1ffe1b66e9a5f7bd6d7433ec5c525f653fefdb785e33dee5c9bca9f_1 phases=1 bus1=node_408207781.1.4 conn=wye kv=0.1270 pf=1 pmpp=0.09 kva=0.10 irradiance=1 temperature=25 %cutin=20 %cutout=20 effcurve=MyEff P-TCurve=MyPvsT Daily=IRRAD_DIA TDaily=TEMP_DIA
New PVSystem.GD_45c9c5ded1ffe1b66e9a5f7bd6d7433ec5c525f653fefdb785e33dee5c9bca9f_2 phases=1 bus1=node_408207781.2.4 conn=wye kv=0.1270 pf=1 pmpp=0.09 kva=0.10 irradiance=1 temperature=25 %cutin=20 %cutout=20 effcurve=MyEff P-TCurve=MyPvsT Daily=IRRAD_DIA TDaily=TEMP_DIA
New PVSystem.GD_45c9c5ded1ffe1b66e9a5f7bd6d7433ec5c525f653fefdb785e33dee5c9bca9f_3 phases=1 bus1=node_408207781.3.4 conn=wye kv=0.1270 pf=1 pmpp=0.09 kva=0.10 irradiance=1 temperature=25 %cutin=20 %cutout=20 effcurve=MyEff P-TCurve=MyPvsT Daily=IRRAD_DIA TDaily=TEMP_DIA
New PVSystem.GD_4d77ce6850021453d2e93a501fcd9407a5a72817a38652450ec8c3ad75e8c733_1 phases=1 bus1=node_408207781.1.4 conn=wye kv=0.1270 pf=1 pmpp=0.52 kva=0.52 irradiance=1 temperature=25 %cutin=20 %cutout=20 effcurve=MyEff P-TCurve=MyPvsT Daily=IRRAD_DIA TDaily=TEMP_DIA
New PVSystem.GD_4d77ce6850021453d2e93a501fcd9407a5a72817a38652450ec8c3ad75e8c733_2 phases=1 bus1=node_408207781.2.4 conn=wye kv=0.1270 pf=1 pmpp=0.52 kva=0.52 irradiance=1 temperature=25 %cutin=20 %cutout=20 effcurve=MyEff P-TCurve=MyPvsT Daily=IRRAD_DIA TDaily=TEMP_DIA
New PVSystem.GD_4d77ce6850021453d2e93a501fcd9407a5a72817a38652450ec8c3ad75e8c733_3 phases=1 bus1=node_408207781.3.4 conn=wye kv=0.1270 pf=1 pmpp=0.52 kva=0.52 irradiance=1 temperature=25 %cutin=20 %cutout=20 effcurve=MyEff P-TCurve=MyPvsT Daily=IRRAD_DIA TDaily=TEMP_DIA
New PVSystem.GD_20cc4c2e1344e4d1e951bcc0242dfb4e25b0cd1e89a916978f041c2921c1b2c3_1 phases=1 bus1=node_408207280.1.4 conn=wye kv=0.1270 pf=1 pmpp=0.89 kva=0.89 irradiance=1 temperature=25 %cutin=20 %cutout=20 effcurve=MyEff P-TCurve=MyPvsT Daily=IRRAD_DIA TDaily=TEMP_DIA
New PVSystem.GD_20cc4c2e1344e4d1e951bcc0242dfb4e25b0cd1e89a916978f041c2921c1b2c3_2 phases=1 bus1=node_408207280.2.4 conn=wye kv=0.1270 pf=1 pmpp=0.89 kva=0.89 irradiance=1 temperature=25 %cutin=20 %cutout=20 effcurve=MyEff P-TCurve=MyPvsT Daily=IRRAD_DIA TDaily=TEMP_DIA
New PVSystem.GD_20cc4c2e1344e4d1e951bcc0242dfb4e25b0cd1e89a916978f041c2921c1b2c3_3 phases=1 bus1=node_408207280.3.4 conn=wye kv=0.1270 pf=1 pmpp=0.89 kva=0.89 irradiance=1 temperature=25 %cutin=20 %cutout=20 effcurve=MyEff P-TCurve=MyPvsT Daily=IRRAD_DIA TDaily=TEMP_DIA
New PVSystem.GD_846479d25a2d8a85508e37cdcfc804c2bb9058d349d956641f7eb02c9ac6e973_1 phases=1 bus1=node_408207280.1.4 conn=wye kv=0.1270 pf=1 pmpp=6.27 kva=6.27 irradiance=1 temperature=25 %cutin=20 %cutout=20 effcurve=MyEff P-TCurve=MyPvsT Daily=IRRAD_DIA TDaily=TEMP_DIA
New PVSystem.GD_846479d25a2d8a85508e37cdcfc804c2bb9058d349d956641f7eb02c9ac6e973_2 phases=1 bus1=node_408207280.2.4 conn=wye kv=0.1270 pf=1 pmpp=6.27 kva=6.27 irradiance=1 temperature=25 %cutin=20 %cutout=20 effcurve=MyEff P-TCurve=MyPvsT Daily=IRRAD_DIA TDaily=TEMP_DIA
New PVSystem.GD_846479d25a2d8a85508e37cdcfc804c2bb9058d349d956641f7eb02c9ac6e973_3 phases=1 bus1=node_408207280.3.4 conn=wye kv=0.1270 pf=1 pmpp=6.27 kva=6.27 irradiance=1 temperature=25 %cutin=20 %cutout=20 effcurve=MyEff P-TCurve=MyPvsT Daily=IRRAD_DIA TDaily=TEMP_DIA
New PVSystem.GD_36993ebfe8af24434bb1bdc83799172522a3ed4b177d679123ebac769a8af0af_1 phases=1 bus1=node_408207280.1.4 conn=wye kv=0.1270 pf=1 pmpp=0.51 kva=0.51 irradiance=1 temperature=25 %cutin=20 %cutout=20 effcurve=MyEff P-TCurve=MyPvsT Daily=IRRAD_DIA TDaily=TEMP_DIA
New PVSystem.GD_36993ebfe8af24434bb1bdc83799172522a3ed4b177d679123ebac769a8af0af_2 phases=1 bus1=node_408207280.2.4 conn=wye kv=0.1270 pf=1 pmpp=0.51 kva=0.51 irradiance=1 temperature=25 %cutin=20 %cutout=20 effcurve=MyEff P-TCurve=MyPvsT Daily=IRRAD_DIA TDaily=TEMP_DIA
New PVSystem.GD_36993ebfe8af24434bb1bdc83799172522a3ed4b177d679123ebac769a8af0af_3 phases=1 bus1=node_408207280.3.4 conn=wye kv=0.1270 pf=1 pmpp=0.51 kva=0.51 irradiance=1 temperature=25 %cutin=20 %cutout=20 effcurve=MyEff P-TCurve=MyPvsT Daily=IRRAD_DIA TDaily=TEMP_DIA
New PVSystem.GD_4bb5077d8559edabf4e05f49ac22c6d8f72f36cbf6ef4f22905c108efdd71ec6_1 phases=1 bus1=node_408207280.1.4 conn=wye kv=0.1270 pf=1 pmpp=0.44 kva=0.44 irradiance=1 temperature=25 %cutin=20 %cutout=20 effcurve=MyEff P-TCurve=MyPvsT Daily=IRRAD_DIA TDaily=TEMP_DIA
New PVSystem.GD_4bb5077d8559edabf4e05f49ac22c6d8f72f36cbf6ef4f22905c108efdd71ec6_2 phases=1 bus1=node_408207280.2.4 conn=wye kv=0.1270 pf=1 pmpp=0.44 kva=0.44 irradiance=1 temperature=25 %cutin=20 %cutout=20 effcurve=MyEff P-TCurve=MyPvsT Daily=IRRAD_DIA TDaily=TEMP_DIA
New PVSystem.GD_4bb5077d8559edabf4e05f49ac22c6d8f72f36cbf6ef4f22905c108efdd71ec6_3 phases=1 bus1=node_408207280.3.4 conn=wye kv=0.1270 pf=1 pmpp=0.44 kva=0.44 irradiance=1 temperature=25 %cutin=20 %cutout=20 effcurve=MyEff P-TCurve=MyPvsT Daily=IRRAD_DIA TDaily=TEMP_DIA
New PVSystem.GD_4ed1eeaa67dc370d7809b3c44bbce25fbfae7b093fa2971a270058509f263615_1 phases=1 bus1=node_408207280.1.4 conn=wye kv=0.1270 pf=1 pmpp=0.13 kva=0.13 irradiance=1 temperature=25 %cutin=20 %cutout=20 effcurve=MyEff P-TCurve=MyPvsT Daily=IRRAD_DIA TDaily=TEMP_DIA
New PVSystem.GD_4ed1eeaa67dc370d7809b3c44bbce25fbfae7b093fa2971a270058509f263615_2 phases=1 bus1=node_408207280.2.4 conn=wye kv=0.1270 pf=1 pmpp=0.13 kva=0.13 irradiance=1 temperature=25 %cutin=20 %cutout=20 effcurve=MyEff P-TCurve=MyPvsT Daily=IRRAD_DIA TDaily=TEMP_DIA
New PVSystem.GD_4ed1eeaa67dc370d7809b3c44bbce25fbfae7b093fa2971a270058509f263615_3 phases=1 bus1=node_408207280.3.4 conn=wye kv=0.1270 pf=1 pmpp=0.13 kva=0.13 irradiance=1 temperature=25 %cutin=20 %cutout=20 effcurve=MyEff P-TCurve=MyPvsT Daily=IRRAD_DIA TDaily=TEMP_DIA
New PVSystem.GD_06867d87470e2176ffea9d5385941f475beea46a8a5e14cac6c1fa28545404b9_1 phases=1 bus1=node_408207280.1.4 conn=wye kv=0.1270 pf=1 pmpp=0.39 kva=0.39 irradiance=1 temperature=25 %cutin=20 %cutout=20 effcurve=MyEff P-TCurve=MyPvsT Daily=IRRAD_DIA TDaily=TEMP_DIA
New PVSystem.GD_06867d87470e2176ffea9d5385941f475beea46a8a5e14cac6c1fa28545404b9_2 phases=1 bus1=node_408207280.2.4 conn=wye kv=0.1270 pf=1 pmpp=0.39 kva=0.39 irradiance=1 temperature=25 %cutin=20 %cutout=20 effcurve=MyEff P-TCurve=MyPvsT Daily=IRRAD_DIA TDaily=TEMP_DIA
New PVSystem.GD_06867d87470e2176ffea9d5385941f475beea46a8a5e14cac6c1fa28545404b9_3 phases=1 bus1=node_408207280.3.4 conn=wye kv=0.1270 pf=1 pmpp=0.39 kva=0.39 irradiance=1 temperature=25 %cutin=20 %cutout=20 effcurve=MyEff P-TCurve=MyPvsT Daily=IRRAD_DIA TDaily=TEMP_DIA
New PVSystem.GD_ec788910dacc610d49a3b71751dd8cc3306bdc651313313044eef98889d621d8_1 phases=1 bus1=node_458383791.1.4 conn=wye kv=0.1270 pf=1 pmpp=0.48 kva=0.48 irradiance=1 temperature=25 %cutin=20 %cutout=20 effcurve=MyEff P-TCurve=MyPvsT Daily=IRRAD_DIA TDaily=TEMP_DIA
New PVSystem.GD_ec788910dacc610d49a3b71751dd8cc3306bdc651313313044eef98889d621d8_2 phases=1 bus1=node_458383791.2.4 conn=wye kv=0.1270 pf=1 pmpp=0.48 kva=0.48 irradiance=1 temperature=25 %cutin=20 %cutout=20 effcurve=MyEff P-TCurve=MyPvsT Daily=IRRAD_DIA TDaily=TEMP_DIA
New PVSystem.GD_ec788910dacc610d49a3b71751dd8cc3306bdc651313313044eef98889d621d8_3 phases=1 bus1=node_458383791.3.4 conn=wye kv=0.1270 pf=1 pmpp=0.48 kva=0.48 irradiance=1 temperature=25 %cutin=20 %cutout=20 effcurve=MyEff P-TCurve=MyPvsT Daily=IRRAD_DIA TDaily=TEMP_DIA
New PVSystem.GD_42dea704d03c82cae6a201bdce47dadd2f0691f7746a9c889e6ae34dca4e2c34_1 phases=1 bus1=node_458383791.1.4 conn=wye kv=0.1270 pf=1 pmpp=0.54 kva=0.54 irradiance=1 temperature=25 %cutin=20 %cutout=20 effcurve=MyEff P-TCurve=MyPvsT Daily=IRRAD_DIA TDaily=TEMP_DIA
New PVSystem.GD_42dea704d03c82cae6a201bdce47dadd2f0691f7746a9c889e6ae34dca4e2c34_2 phases=1 bus1=node_458383791.2.4 conn=wye kv=0.1270 pf=1 pmpp=0.54 kva=0.54 irradiance=1 temperature=25 %cutin=20 %cutout=20 effcurve=MyEff P-TCurve=MyPvsT Daily=IRRAD_DIA TDaily=TEMP_DIA
New PVSystem.GD_42dea704d03c82cae6a201bdce47dadd2f0691f7746a9c889e6ae34dca4e2c34_3 phases=1 bus1=node_458383791.3.4 conn=wye kv=0.1270 pf=1 pmpp=0.54 kva=0.54 irradiance=1 temperature=25 %cutin=20 %cutout=20 effcurve=MyEff P-TCurve=MyPvsT Daily=IRRAD_DIA TDaily=TEMP_DIA
New PVSystem.GD_4e8862ee41af96e4c42cf0e9cc0ea3918297f8790b858a7bd2f50364b3b3953b_1 phases=1 bus1=node_458383791.1.4 conn=wye kv=0.1270 pf=1 pmpp=0.43 kva=0.43 irradiance=1 temperature=25 %cutin=20 %cutout=20 effcurve=MyEff P-TCurve=MyPvsT Daily=IRRAD_DIA TDaily=TEMP_DIA
New PVSystem.GD_4e8862ee41af96e4c42cf0e9cc0ea3918297f8790b858a7bd2f50364b3b3953b_2 phases=1 bus1=node_458383791.2.4 conn=wye kv=0.1270 pf=1 pmpp=0.43 kva=0.43 irradiance=1 temperature=25 %cutin=20 %cutout=20 effcurve=MyEff P-TCurve=MyPvsT Daily=IRRAD_DIA TDaily=TEMP_DIA
New PVSystem.GD_4e8862ee41af96e4c42cf0e9cc0ea3918297f8790b858a7bd2f50364b3b3953b_3 phases=1 bus1=node_458383791.3.4 conn=wye kv=0.1270 pf=1 pmpp=0.43 kva=0.43 irradiance=1 temperature=25 %cutin=20 %cutout=20 effcurve=MyEff P-TCurve=MyPvsT Daily=IRRAD_DIA TDaily=TEMP_DIA
New PVSystem.GD_61dd0ed4256f3d745d0de795236978da0cf5c760b119bdd7bb62ee4db02deb6e_1 phases=1 bus1=node_458383791.1.4 conn=wye kv=0.1270 pf=1 pmpp=1.10 kva=1.10 irradiance=1 temperature=25 %cutin=20 %cutout=20 effcurve=MyEff P-TCurve=MyPvsT Daily=IRRAD_DIA TDaily=TEMP_DIA
New PVSystem.GD_61dd0ed4256f3d745d0de795236978da0cf5c760b119bdd7bb62ee4db02deb6e_2 phases=1 bus1=node_458383791.2.4 conn=wye kv=0.1270 pf=1 pmpp=1.10 kva=1.10 irradiance=1 temperature=25 %cutin=20 %cutout=20 effcurve=MyEff P-TCurve=MyPvsT Daily=IRRAD_DIA TDaily=TEMP_DIA
New PVSystem.GD_61dd0ed4256f3d745d0de795236978da0cf5c760b119bdd7bb62ee4db02deb6e_3 phases=1 bus1=node_458383791.3.4 conn=wye kv=0.1270 pf=1 pmpp=1.10 kva=1.10 irradiance=1 temperature=25 %cutin=20 %cutout=20 effcurve=MyEff P-TCurve=MyPvsT Daily=IRRAD_DIA TDaily=TEMP_DIA
New PVSystem.GD_1feaaaca94364c6ec4a910219e52c712e5402f8ebffe83cb33f1417c59b8385e_1 phases=1 bus1=node_408208276.1.4 conn=wye kv=0.1270 pf=1 pmpp=0.49 kva=0.49 irradiance=1 temperature=25 %cutin=20 %cutout=20 effcurve=MyEff P-TCurve=MyPvsT Daily=IRRAD_DIA TDaily=TEMP_DIA
New PVSystem.GD_1feaaaca94364c6ec4a910219e52c712e5402f8ebffe83cb33f1417c59b8385e_2 phases=1 bus1=node_408208276.2.4 conn=wye kv=0.1270 pf=1 pmpp=0.49 kva=0.49 irradiance=1 temperature=25 %cutin=20 %cutout=20 effcurve=MyEff P-TCurve=MyPvsT Daily=IRRAD_DIA TDaily=TEMP_DIA
New PVSystem.GD_1feaaaca94364c6ec4a910219e52c712e5402f8ebffe83cb33f1417c59b8385e_3 phases=1 bus1=node_408208276.3.4 conn=wye kv=0.1270 pf=1 pmpp=0.49 kva=0.49 irradiance=1 temperature=25 %cutin=20 %cutout=20 effcurve=MyEff P-TCurve=MyPvsT Daily=IRRAD_DIA TDaily=TEMP_DIA
New PVSystem.GD_7f3b1fae80f368e3501f8f5f856a1fd63cfa9e7f1bbb7c5ba197513752675cf2_1 phases=1 bus1=node_408208276.1.4 conn=wye kv=0.1270 pf=1 pmpp=0.44 kva=0.44 irradiance=1 temperature=25 %cutin=20 %cutout=20 effcurve=MyEff P-TCurve=MyPvsT Daily=IRRAD_DIA TDaily=TEMP_DIA
New PVSystem.GD_7f3b1fae80f368e3501f8f5f856a1fd63cfa9e7f1bbb7c5ba197513752675cf2_2 phases=1 bus1=node_408208276.2.4 conn=wye kv=0.1270 pf=1 pmpp=0.44 kva=0.44 irradiance=1 temperature=25 %cutin=20 %cutout=20 effcurve=MyEff P-TCurve=MyPvsT Daily=IRRAD_DIA TDaily=TEMP_DIA
New PVSystem.GD_7f3b1fae80f368e3501f8f5f856a1fd63cfa9e7f1bbb7c5ba197513752675cf2_3 phases=1 bus1=node_408208276.3.4 conn=wye kv=0.1270 pf=1 pmpp=0.44 kva=0.44 irradiance=1 temperature=25 %cutin=20 %cutout=20 effcurve=MyEff P-TCurve=MyPvsT Daily=IRRAD_DIA TDaily=TEMP_DIA
New PVSystem.GD_1bc8718a400522721aed2208a8bd18993013842364257d58ac3d8596024ca8d9_1 phases=1 bus1=node_408208276.1.4 conn=wye kv=0.1270 pf=1 pmpp=0.70 kva=0.70 irradiance=1 temperature=25 %cutin=20 %cutout=20 effcurve=MyEff P-TCurve=MyPvsT Daily=IRRAD_DIA TDaily=TEMP_DIA
New PVSystem.GD_1bc8718a400522721aed2208a8bd18993013842364257d58ac3d8596024ca8d9_2 phases=1 bus1=node_408208276.2.4 conn=wye kv=0.1270 pf=1 pmpp=0.70 kva=0.70 irradiance=1 temperature=25 %cutin=20 %cutout=20 effcurve=MyEff P-TCurve=MyPvsT Daily=IRRAD_DIA TDaily=TEMP_DIA
New PVSystem.GD_1bc8718a400522721aed2208a8bd18993013842364257d58ac3d8596024ca8d9_3 phases=1 bus1=node_408208276.3.4 conn=wye kv=0.1270 pf=1 pmpp=0.70 kva=0.70 irradiance=1 temperature=25 %cutin=20 %cutout=20 effcurve=MyEff P-TCurve=MyPvsT Daily=IRRAD_DIA TDaily=TEMP_DIA
New PVSystem.GD_d9886f36420b7696b84db05fb0da0f4fce6e368d18711dbab29b5313859f477c_1 phases=1 bus1=node_408208276.1.4 conn=wye kv=0.1270 pf=1 pmpp=1.84 kva=1.84 irradiance=1 temperature=25 %cutin=20 %cutout=20 effcurve=MyEff P-TCurve=MyPvsT Daily=IRRAD_DIA TDaily=TEMP_DIA
New PVSystem.GD_d9886f36420b7696b84db05fb0da0f4fce6e368d18711dbab29b5313859f477c_2 phases=1 bus1=node_408208276.2.4 conn=wye kv=0.1270 pf=1 pmpp=1.84 kva=1.84 irradiance=1 temperature=25 %cutin=20 %cutout=20 effcurve=MyEff P-TCurve=MyPvsT Daily=IRRAD_DIA TDaily=TEMP_DIA
New PVSystem.GD_d9886f36420b7696b84db05fb0da0f4fce6e368d18711dbab29b5313859f477c_3 phases=1 bus1=node_408208276.3.4 conn=wye kv=0.1270 pf=1 pmpp=1.84 kva=1.84 irradiance=1 temperature=25 %cutin=20 %cutout=20 effcurve=MyEff P-TCurve=MyPvsT Daily=IRRAD_DIA TDaily=TEMP_DIA
New PVSystem.GD_ebba331d492d643d51d21fae2f1e202095ac0506aee09f68353c1c3e9e3924ba_1 phases=1 bus1=node_408208276.1.4 conn=wye kv=0.1270 pf=1 pmpp=0.06 kva=0.10 irradiance=1 temperature=25 %cutin=20 %cutout=20 effcurve=MyEff P-TCurve=MyPvsT Daily=IRRAD_DIA TDaily=TEMP_DIA
New PVSystem.GD_ebba331d492d643d51d21fae2f1e202095ac0506aee09f68353c1c3e9e3924ba_2 phases=1 bus1=node_408208276.2.4 conn=wye kv=0.1270 pf=1 pmpp=0.06 kva=0.10 irradiance=1 temperature=25 %cutin=20 %cutout=20 effcurve=MyEff P-TCurve=MyPvsT Daily=IRRAD_DIA TDaily=TEMP_DIA
New PVSystem.GD_ebba331d492d643d51d21fae2f1e202095ac0506aee09f68353c1c3e9e3924ba_3 phases=1 bus1=node_408208276.3.4 conn=wye kv=0.1270 pf=1 pmpp=0.06 kva=0.10 irradiance=1 temperature=25 %cutin=20 %cutout=20 effcurve=MyEff P-TCurve=MyPvsT Daily=IRRAD_DIA TDaily=TEMP_DIA
New PVSystem.GD_a986c17dc34696138e216e4f2663a3a38e73c82267676562bab6fd2b14de2f61_1 phases=1 bus1=node_408208276.1.4 conn=wye kv=0.1270 pf=1 pmpp=0.37 kva=0.37 irradiance=1 temperature=25 %cutin=20 %cutout=20 effcurve=MyEff P-TCurve=MyPvsT Daily=IRRAD_DIA TDaily=TEMP_DIA
New PVSystem.GD_a986c17dc34696138e216e4f2663a3a38e73c82267676562bab6fd2b14de2f61_2 phases=1 bus1=node_408208276.2.4 conn=wye kv=0.1270 pf=1 pmpp=0.37 kva=0.37 irradiance=1 temperature=25 %cutin=20 %cutout=20 effcurve=MyEff P-TCurve=MyPvsT Daily=IRRAD_DIA TDaily=TEMP_DIA
New PVSystem.GD_a986c17dc34696138e216e4f2663a3a38e73c82267676562bab6fd2b14de2f61_3 phases=1 bus1=node_408208276.3.4 conn=wye kv=0.1270 pf=1 pmpp=0.37 kva=0.37 irradiance=1 temperature=25 %cutin=20 %cutout=20 effcurve=MyEff P-TCurve=MyPvsT Daily=IRRAD_DIA TDaily=TEMP_DIA
New PVSystem.GD_6b2eafa34ee55c7da7953a184a45c555e1d4fce7c2105f927524d87ae872cd08_1 phases=1 bus1=node_408208276.1.4 conn=wye kv=0.1270 pf=1 pmpp=0.28 kva=0.28 irradiance=1 temperature=25 %cutin=20 %cutout=20 effcurve=MyEff P-TCurve=MyPvsT Daily=IRRAD_DIA TDaily=TEMP_DIA
New PVSystem.GD_6b2eafa34ee55c7da7953a184a45c555e1d4fce7c2105f927524d87ae872cd08_2 phases=1 bus1=node_408208276.2.4 conn=wye kv=0.1270 pf=1 pmpp=0.28 kva=0.28 irradiance=1 temperature=25 %cutin=20 %cutout=20 effcurve=MyEff P-TCurve=MyPvsT Daily=IRRAD_DIA TDaily=TEMP_DIA
New PVSystem.GD_6b2eafa34ee55c7da7953a184a45c555e1d4fce7c2105f927524d87ae872cd08_3 phases=1 bus1=node_408208276.3.4 conn=wye kv=0.1270 pf=1 pmpp=0.28 kva=0.28 irradiance=1 temperature=25 %cutin=20 %cutout=20 effcurve=MyEff P-TCurve=MyPvsT Daily=IRRAD_DIA TDaily=TEMP_DIA
New PVSystem.GD_67cc110bd3ded47249c275e8fd27f3fcc8abead756004350950e185116e701cb_1 phases=1 bus1=node_408208276.1.4 conn=wye kv=0.1270 pf=1 pmpp=0.51 kva=0.51 irradiance=1 temperature=25 %cutin=20 %cutout=20 effcurve=MyEff P-TCurve=MyPvsT Daily=IRRAD_DIA TDaily=TEMP_DIA
New PVSystem.GD_67cc110bd3ded47249c275e8fd27f3fcc8abead756004350950e185116e701cb_2 phases=1 bus1=node_408208276.2.4 conn=wye kv=0.1270 pf=1 pmpp=0.51 kva=0.51 irradiance=1 temperature=25 %cutin=20 %cutout=20 effcurve=MyEff P-TCurve=MyPvsT Daily=IRRAD_DIA TDaily=TEMP_DIA
New PVSystem.GD_67cc110bd3ded47249c275e8fd27f3fcc8abead756004350950e185116e701cb_3 phases=1 bus1=node_408208276.3.4 conn=wye kv=0.1270 pf=1 pmpp=0.51 kva=0.51 irradiance=1 temperature=25 %cutin=20 %cutout=20 effcurve=MyEff P-TCurve=MyPvsT Daily=IRRAD_DIA TDaily=TEMP_DIA
New PVSystem.GD_50effdcf05f3bd700f497badec243849df1c14d87c9f0d942b612e20456be7a6_1 phases=1 bus1=node_408208276.1.4 conn=wye kv=0.1270 pf=1 pmpp=0.32 kva=0.32 irradiance=1 temperature=25 %cutin=20 %cutout=20 effcurve=MyEff P-TCurve=MyPvsT Daily=IRRAD_DIA TDaily=TEMP_DIA
New PVSystem.GD_50effdcf05f3bd700f497badec243849df1c14d87c9f0d942b612e20456be7a6_2 phases=1 bus1=node_408208276.2.4 conn=wye kv=0.1270 pf=1 pmpp=0.32 kva=0.32 irradiance=1 temperature=25 %cutin=20 %cutout=20 effcurve=MyEff P-TCurve=MyPvsT Daily=IRRAD_DIA TDaily=TEMP_DIA
New PVSystem.GD_50effdcf05f3bd700f497badec243849df1c14d87c9f0d942b612e20456be7a6_3 phases=1 bus1=node_408208276.3.4 conn=wye kv=0.1270 pf=1 pmpp=0.32 kva=0.32 irradiance=1 temperature=25 %cutin=20 %cutout=20 effcurve=MyEff P-TCurve=MyPvsT Daily=IRRAD_DIA TDaily=TEMP_DIA
New PVSystem.GD_c3717d1980e6d02a39dd5e862f2f6b032d09f08de2b4ee752d0014371b9b3305_1 phases=1 bus1=node_408208276.1.4 conn=wye kv=0.1270 pf=1 pmpp=0.39 kva=0.39 irradiance=1 temperature=25 %cutin=20 %cutout=20 effcurve=MyEff P-TCurve=MyPvsT Daily=IRRAD_DIA TDaily=TEMP_DIA
New PVSystem.GD_c3717d1980e6d02a39dd5e862f2f6b032d09f08de2b4ee752d0014371b9b3305_2 phases=1 bus1=node_408208276.2.4 conn=wye kv=0.1270 pf=1 pmpp=0.39 kva=0.39 irradiance=1 temperature=25 %cutin=20 %cutout=20 effcurve=MyEff P-TCurve=MyPvsT Daily=IRRAD_DIA TDaily=TEMP_DIA
New PVSystem.GD_c3717d1980e6d02a39dd5e862f2f6b032d09f08de2b4ee752d0014371b9b3305_3 phases=1 bus1=node_408208276.3.4 conn=wye kv=0.1270 pf=1 pmpp=0.39 kva=0.39 irradiance=1 temperature=25 %cutin=20 %cutout=20 effcurve=MyEff P-TCurve=MyPvsT Daily=IRRAD_DIA TDaily=TEMP_DIA
New PVSystem.GD_bf5f84509c23132d9175500401af7920ebc4dbf59a470f1f300c223a9fc26a0a_1 phases=1 bus1=node_408208276.1.4 conn=wye kv=0.1270 pf=1 pmpp=0.43 kva=0.43 irradiance=1 temperature=25 %cutin=20 %cutout=20 effcurve=MyEff P-TCurve=MyPvsT Daily=IRRAD_DIA TDaily=TEMP_DIA
New PVSystem.GD_bf5f84509c23132d9175500401af7920ebc4dbf59a470f1f300c223a9fc26a0a_2 phases=1 bus1=node_408208276.2.4 conn=wye kv=0.1270 pf=1 pmpp=0.43 kva=0.43 irradiance=1 temperature=25 %cutin=20 %cutout=20 effcurve=MyEff P-TCurve=MyPvsT Daily=IRRAD_DIA TDaily=TEMP_DIA
New PVSystem.GD_bf5f84509c23132d9175500401af7920ebc4dbf59a470f1f300c223a9fc26a0a_3 phases=1 bus1=node_408208276.3.4 conn=wye kv=0.1270 pf=1 pmpp=0.43 kva=0.43 irradiance=1 temperature=25 %cutin=20 %cutout=20 effcurve=MyEff P-TCurve=MyPvsT Daily=IRRAD_DIA TDaily=TEMP_DIA
New PVSystem.GD_45a148d34b006e3e17a2b48e8172c617a53a6063b9c992cae1c70a2924a95247_1 phases=1 bus1=node_408208276.1.4 conn=wye kv=0.1270 pf=1 pmpp=0.84 kva=0.84 irradiance=1 temperature=25 %cutin=20 %cutout=20 effcurve=MyEff P-TCurve=MyPvsT Daily=IRRAD_DIA TDaily=TEMP_DIA
New PVSystem.GD_45a148d34b006e3e17a2b48e8172c617a53a6063b9c992cae1c70a2924a95247_2 phases=1 bus1=node_408208276.2.4 conn=wye kv=0.1270 pf=1 pmpp=0.84 kva=0.84 irradiance=1 temperature=25 %cutin=20 %cutout=20 effcurve=MyEff P-TCurve=MyPvsT Daily=IRRAD_DIA TDaily=TEMP_DIA
New PVSystem.GD_45a148d34b006e3e17a2b48e8172c617a53a6063b9c992cae1c70a2924a95247_3 phases=1 bus1=node_408208276.3.4 conn=wye kv=0.1270 pf=1 pmpp=0.84 kva=0.84 irradiance=1 temperature=25 %cutin=20 %cutout=20 effcurve=MyEff P-TCurve=MyPvsT Daily=IRRAD_DIA TDaily=TEMP_DIA
New PVSystem.GD_9391e3f066b4d11c8d373795c959d5961207c537eea4b6400921f3e22ec9ede0_1 phases=1 bus1=node_408208183.1.4 conn=wye kv=0.1270 pf=1 pmpp=0.35 kva=0.35 irradiance=1 temperature=25 %cutin=20 %cutout=20 effcurve=MyEff P-TCurve=MyPvsT Daily=IRRAD_DIA TDaily=TEMP_DIA
New PVSystem.GD_9391e3f066b4d11c8d373795c959d5961207c537eea4b6400921f3e22ec9ede0_2 phases=1 bus1=node_408208183.2.4 conn=wye kv=0.1270 pf=1 pmpp=0.35 kva=0.35 irradiance=1 temperature=25 %cutin=20 %cutout=20 effcurve=MyEff P-TCurve=MyPvsT Daily=IRRAD_DIA TDaily=TEMP_DIA
New PVSystem.GD_9391e3f066b4d11c8d373795c959d5961207c537eea4b6400921f3e22ec9ede0_3 phases=1 bus1=node_408208183.3.4 conn=wye kv=0.1270 pf=1 pmpp=0.35 kva=0.35 irradiance=1 temperature=25 %cutin=20 %cutout=20 effcurve=MyEff P-TCurve=MyPvsT Daily=IRRAD_DIA TDaily=TEMP_DIA
New PVSystem.GD_fd207a62159c6d425c643131f1c8072da3df458fe59adb1e4fa974ec7f76be78_1 phases=1 bus1=node_408208183.1.4 conn=wye kv=0.1270 pf=1 pmpp=0.55 kva=0.55 irradiance=1 temperature=25 %cutin=20 %cutout=20 effcurve=MyEff P-TCurve=MyPvsT Daily=IRRAD_DIA TDaily=TEMP_DIA
New PVSystem.GD_fd207a62159c6d425c643131f1c8072da3df458fe59adb1e4fa974ec7f76be78_2 phases=1 bus1=node_408208183.2.4 conn=wye kv=0.1270 pf=1 pmpp=0.55 kva=0.55 irradiance=1 temperature=25 %cutin=20 %cutout=20 effcurve=MyEff P-TCurve=MyPvsT Daily=IRRAD_DIA TDaily=TEMP_DIA
New PVSystem.GD_fd207a62159c6d425c643131f1c8072da3df458fe59adb1e4fa974ec7f76be78_3 phases=1 bus1=node_408208183.3.4 conn=wye kv=0.1270 pf=1 pmpp=0.55 kva=0.55 irradiance=1 temperature=25 %cutin=20 %cutout=20 effcurve=MyEff P-TCurve=MyPvsT Daily=IRRAD_DIA TDaily=TEMP_DIA
New PVSystem.GD_72d899fee6caf7448bdd77015cf5bf053437c1499d3388550efc5d84fac749bc_1 phases=1 bus1=node_408208183.1.4 conn=wye kv=0.1270 pf=1 pmpp=0.51 kva=0.51 irradiance=1 temperature=25 %cutin=20 %cutout=20 effcurve=MyEff P-TCurve=MyPvsT Daily=IRRAD_DIA TDaily=TEMP_DIA
New PVSystem.GD_72d899fee6caf7448bdd77015cf5bf053437c1499d3388550efc5d84fac749bc_2 phases=1 bus1=node_408208183.2.4 conn=wye kv=0.1270 pf=1 pmpp=0.51 kva=0.51 irradiance=1 temperature=25 %cutin=20 %cutout=20 effcurve=MyEff P-TCurve=MyPvsT Daily=IRRAD_DIA TDaily=TEMP_DIA
New PVSystem.GD_72d899fee6caf7448bdd77015cf5bf053437c1499d3388550efc5d84fac749bc_3 phases=1 bus1=node_408208183.3.4 conn=wye kv=0.1270 pf=1 pmpp=0.51 kva=0.51 irradiance=1 temperature=25 %cutin=20 %cutout=20 effcurve=MyEff P-TCurve=MyPvsT Daily=IRRAD_DIA TDaily=TEMP_DIA
New PVSystem.GD_150b0639345ba38c2974747e75206a56214d08b256791c2076bbc3f670297b75_1 phases=1 bus1=node_408208183.1.4 conn=wye kv=0.1270 pf=1 pmpp=0.27 kva=0.27 irradiance=1 temperature=25 %cutin=20 %cutout=20 effcurve=MyEff P-TCurve=MyPvsT Daily=IRRAD_DIA TDaily=TEMP_DIA
New PVSystem.GD_150b0639345ba38c2974747e75206a56214d08b256791c2076bbc3f670297b75_2 phases=1 bus1=node_408208183.2.4 conn=wye kv=0.1270 pf=1 pmpp=0.27 kva=0.27 irradiance=1 temperature=25 %cutin=20 %cutout=20 effcurve=MyEff P-TCurve=MyPvsT Daily=IRRAD_DIA TDaily=TEMP_DIA
New PVSystem.GD_150b0639345ba38c2974747e75206a56214d08b256791c2076bbc3f670297b75_3 phases=1 bus1=node_408208183.3.4 conn=wye kv=0.1270 pf=1 pmpp=0.27 kva=0.27 irradiance=1 temperature=25 %cutin=20 %cutout=20 effcurve=MyEff P-TCurve=MyPvsT Daily=IRRAD_DIA TDaily=TEMP_DIA
New PVSystem.GD_f6abf89efd87df90344db41a1df596fb0addb59a21ada707572c4f55636ef56d_1 phases=1 bus1=node_408208183.1.4 conn=wye kv=0.1270 pf=1 pmpp=0.47 kva=0.47 irradiance=1 temperature=25 %cutin=20 %cutout=20 effcurve=MyEff P-TCurve=MyPvsT Daily=IRRAD_DIA TDaily=TEMP_DIA
New PVSystem.GD_f6abf89efd87df90344db41a1df596fb0addb59a21ada707572c4f55636ef56d_2 phases=1 bus1=node_408208183.2.4 conn=wye kv=0.1270 pf=1 pmpp=0.47 kva=0.47 irradiance=1 temperature=25 %cutin=20 %cutout=20 effcurve=MyEff P-TCurve=MyPvsT Daily=IRRAD_DIA TDaily=TEMP_DIA
New PVSystem.GD_f6abf89efd87df90344db41a1df596fb0addb59a21ada707572c4f55636ef56d_3 phases=1 bus1=node_408208183.3.4 conn=wye kv=0.1270 pf=1 pmpp=0.47 kva=0.47 irradiance=1 temperature=25 %cutin=20 %cutout=20 effcurve=MyEff P-TCurve=MyPvsT Daily=IRRAD_DIA TDaily=TEMP_DIA
New PVSystem.GD_33517483b4714f0a0b2efc0c5575c82f7b94e015b7cbd9abf693375a190bec62_1 phases=1 bus1=node_408208183.1.4 conn=wye kv=0.1270 pf=1 pmpp=0.33 kva=0.33 irradiance=1 temperature=25 %cutin=20 %cutout=20 effcurve=MyEff P-TCurve=MyPvsT Daily=IRRAD_DIA TDaily=TEMP_DIA
New PVSystem.GD_33517483b4714f0a0b2efc0c5575c82f7b94e015b7cbd9abf693375a190bec62_2 phases=1 bus1=node_408208183.2.4 conn=wye kv=0.1270 pf=1 pmpp=0.33 kva=0.33 irradiance=1 temperature=25 %cutin=20 %cutout=20 effcurve=MyEff P-TCurve=MyPvsT Daily=IRRAD_DIA TDaily=TEMP_DIA
New PVSystem.GD_33517483b4714f0a0b2efc0c5575c82f7b94e015b7cbd9abf693375a190bec62_3 phases=1 bus1=node_408208183.3.4 conn=wye kv=0.1270 pf=1 pmpp=0.33 kva=0.33 irradiance=1 temperature=25 %cutin=20 %cutout=20 effcurve=MyEff P-TCurve=MyPvsT Daily=IRRAD_DIA TDaily=TEMP_DIA
New PVSystem.GD_4cdd3f15ad18d845dc969e56d080aad3774b5cf4e01876fa64a66ae0421320c2_1 phases=1 bus1=node_408208183.1.4 conn=wye kv=0.1270 pf=1 pmpp=0.20 kva=0.20 irradiance=1 temperature=25 %cutin=20 %cutout=20 effcurve=MyEff P-TCurve=MyPvsT Daily=IRRAD_DIA TDaily=TEMP_DIA
New PVSystem.GD_4cdd3f15ad18d845dc969e56d080aad3774b5cf4e01876fa64a66ae0421320c2_2 phases=1 bus1=node_408208183.2.4 conn=wye kv=0.1270 pf=1 pmpp=0.20 kva=0.20 irradiance=1 temperature=25 %cutin=20 %cutout=20 effcurve=MyEff P-TCurve=MyPvsT Daily=IRRAD_DIA TDaily=TEMP_DIA
New PVSystem.GD_4cdd3f15ad18d845dc969e56d080aad3774b5cf4e01876fa64a66ae0421320c2_3 phases=1 bus1=node_408208183.3.4 conn=wye kv=0.1270 pf=1 pmpp=0.20 kva=0.20 irradiance=1 temperature=25 %cutin=20 %cutout=20 effcurve=MyEff P-TCurve=MyPvsT Daily=IRRAD_DIA TDaily=TEMP_DIA
New PVSystem.GD_200e386d1d450e4c8cdc37bcd09f8780ce7463f3c1570ef510926caffa496c8b_1 phases=1 bus1=node_408209053.1.4 conn=wye kv=0.1270 pf=1 pmpp=1.30 kva=1.30 irradiance=1 temperature=25 %cutin=20 %cutout=20 effcurve=MyEff P-TCurve=MyPvsT Daily=IRRAD_DIA TDaily=TEMP_DIA
New PVSystem.GD_200e386d1d450e4c8cdc37bcd09f8780ce7463f3c1570ef510926caffa496c8b_2 phases=1 bus1=node_408209053.2.4 conn=wye kv=0.1270 pf=1 pmpp=1.30 kva=1.30 irradiance=1 temperature=25 %cutin=20 %cutout=20 effcurve=MyEff P-TCurve=MyPvsT Daily=IRRAD_DIA TDaily=TEMP_DIA
New PVSystem.GD_200e386d1d450e4c8cdc37bcd09f8780ce7463f3c1570ef510926caffa496c8b_3 phases=1 bus1=node_408209053.3.4 conn=wye kv=0.1270 pf=1 pmpp=1.30 kva=1.30 irradiance=1 temperature=25 %cutin=20 %cutout=20 effcurve=MyEff P-TCurve=MyPvsT Daily=IRRAD_DIA TDaily=TEMP_DIA
New PVSystem.GD_0ba3dec631dc74b90ea12231099608e16c760246fc3fb7bc7b1b4918376adaac_1 phases=1 bus1=node_408209053.1.4 conn=wye kv=0.1270 pf=1 pmpp=1.14 kva=1.14 irradiance=1 temperature=25 %cutin=20 %cutout=20 effcurve=MyEff P-TCurve=MyPvsT Daily=IRRAD_DIA TDaily=TEMP_DIA
New PVSystem.GD_0ba3dec631dc74b90ea12231099608e16c760246fc3fb7bc7b1b4918376adaac_2 phases=1 bus1=node_408209053.2.4 conn=wye kv=0.1270 pf=1 pmpp=1.14 kva=1.14 irradiance=1 temperature=25 %cutin=20 %cutout=20 effcurve=MyEff P-TCurve=MyPvsT Daily=IRRAD_DIA TDaily=TEMP_DIA
New PVSystem.GD_0ba3dec631dc74b90ea12231099608e16c760246fc3fb7bc7b1b4918376adaac_3 phases=1 bus1=node_408209053.3.4 conn=wye kv=0.1270 pf=1 pmpp=1.14 kva=1.14 irradiance=1 temperature=25 %cutin=20 %cutout=20 effcurve=MyEff P-TCurve=MyPvsT Daily=IRRAD_DIA TDaily=TEMP_DIA
New PVSystem.GD_792a3c2778c0b98497aa2be8fd9270f2f0e0c08d030564c91abb61e70cd988b4_1 phases=1 bus1=node_408207199.1.4 conn=wye kv=0.1270 pf=1 pmpp=0.57 kva=0.57 irradiance=1 temperature=25 %cutin=20 %cutout=20 effcurve=MyEff P-TCurve=MyPvsT Daily=IRRAD_DIA TDaily=TEMP_DIA
New PVSystem.GD_792a3c2778c0b98497aa2be8fd9270f2f0e0c08d030564c91abb61e70cd988b4_2 phases=1 bus1=node_408207199.2.4 conn=wye kv=0.1270 pf=1 pmpp=0.57 kva=0.57 irradiance=1 temperature=25 %cutin=20 %cutout=20 effcurve=MyEff P-TCurve=MyPvsT Daily=IRRAD_DIA TDaily=TEMP_DIA
New PVSystem.GD_792a3c2778c0b98497aa2be8fd9270f2f0e0c08d030564c91abb61e70cd988b4_3 phases=1 bus1=node_408207199.3.4 conn=wye kv=0.1270 pf=1 pmpp=0.57 kva=0.57 irradiance=1 temperature=25 %cutin=20 %cutout=20 effcurve=MyEff P-TCurve=MyPvsT Daily=IRRAD_DIA TDaily=TEMP_DIA
New PVSystem.GD_96cabb08846720241e0c33f8a6c73a118684300d8c926387b1f2415380a9c949_1 phases=1 bus1=node_408207199.1.4 conn=wye kv=0.1270 pf=1 pmpp=0.41 kva=0.41 irradiance=1 temperature=25 %cutin=20 %cutout=20 effcurve=MyEff P-TCurve=MyPvsT Daily=IRRAD_DIA TDaily=TEMP_DIA
New PVSystem.GD_96cabb08846720241e0c33f8a6c73a118684300d8c926387b1f2415380a9c949_2 phases=1 bus1=node_408207199.2.4 conn=wye kv=0.1270 pf=1 pmpp=0.41 kva=0.41 irradiance=1 temperature=25 %cutin=20 %cutout=20 effcurve=MyEff P-TCurve=MyPvsT Daily=IRRAD_DIA TDaily=TEMP_DIA
New PVSystem.GD_96cabb08846720241e0c33f8a6c73a118684300d8c926387b1f2415380a9c949_3 phases=1 bus1=node_408207199.3.4 conn=wye kv=0.1270 pf=1 pmpp=0.41 kva=0.41 irradiance=1 temperature=25 %cutin=20 %cutout=20 effcurve=MyEff P-TCurve=MyPvsT Daily=IRRAD_DIA TDaily=TEMP_DIA
New PVSystem.GD_ba315de048cbe293dd0f38ed1f530934d0551ae874179f6b287d83f2b7cfaba3_1 phases=1 bus1=node_408207199.1.4 conn=wye kv=0.1270 pf=1 pmpp=0.51 kva=0.51 irradiance=1 temperature=25 %cutin=20 %cutout=20 effcurve=MyEff P-TCurve=MyPvsT Daily=IRRAD_DIA TDaily=TEMP_DIA
New PVSystem.GD_ba315de048cbe293dd0f38ed1f530934d0551ae874179f6b287d83f2b7cfaba3_2 phases=1 bus1=node_408207199.2.4 conn=wye kv=0.1270 pf=1 pmpp=0.51 kva=0.51 irradiance=1 temperature=25 %cutin=20 %cutout=20 effcurve=MyEff P-TCurve=MyPvsT Daily=IRRAD_DIA TDaily=TEMP_DIA
New PVSystem.GD_ba315de048cbe293dd0f38ed1f530934d0551ae874179f6b287d83f2b7cfaba3_3 phases=1 bus1=node_408207199.3.4 conn=wye kv=0.1270 pf=1 pmpp=0.51 kva=0.51 irradiance=1 temperature=25 %cutin=20 %cutout=20 effcurve=MyEff P-TCurve=MyPvsT Daily=IRRAD_DIA TDaily=TEMP_DIA
New PVSystem.GD_f865c2f9452d35718b2519824f39ba2d346c95fae592ad8d188577c99015310e_1 phases=1 bus1=node_408207199.1.4 conn=wye kv=0.1270 pf=1 pmpp=0.49 kva=0.49 irradiance=1 temperature=25 %cutin=20 %cutout=20 effcurve=MyEff P-TCurve=MyPvsT Daily=IRRAD_DIA TDaily=TEMP_DIA
New PVSystem.GD_f865c2f9452d35718b2519824f39ba2d346c95fae592ad8d188577c99015310e_2 phases=1 bus1=node_408207199.2.4 conn=wye kv=0.1270 pf=1 pmpp=0.49 kva=0.49 irradiance=1 temperature=25 %cutin=20 %cutout=20 effcurve=MyEff P-TCurve=MyPvsT Daily=IRRAD_DIA TDaily=TEMP_DIA
New PVSystem.GD_f865c2f9452d35718b2519824f39ba2d346c95fae592ad8d188577c99015310e_3 phases=1 bus1=node_408207199.3.4 conn=wye kv=0.1270 pf=1 pmpp=0.49 kva=0.49 irradiance=1 temperature=25 %cutin=20 %cutout=20 effcurve=MyEff P-TCurve=MyPvsT Daily=IRRAD_DIA TDaily=TEMP_DIA
New PVSystem.GD_23c8edd3b5d8fc2bdbb35d87628440e2cdc7267c157114415731774263098f20_1 phases=1 bus1=node_408207199.1.4 conn=wye kv=0.1270 pf=1 pmpp=0.33 kva=0.33 irradiance=1 temperature=25 %cutin=20 %cutout=20 effcurve=MyEff P-TCurve=MyPvsT Daily=IRRAD_DIA TDaily=TEMP_DIA
New PVSystem.GD_23c8edd3b5d8fc2bdbb35d87628440e2cdc7267c157114415731774263098f20_2 phases=1 bus1=node_408207199.2.4 conn=wye kv=0.1270 pf=1 pmpp=0.33 kva=0.33 irradiance=1 temperature=25 %cutin=20 %cutout=20 effcurve=MyEff P-TCurve=MyPvsT Daily=IRRAD_DIA TDaily=TEMP_DIA
New PVSystem.GD_23c8edd3b5d8fc2bdbb35d87628440e2cdc7267c157114415731774263098f20_3 phases=1 bus1=node_408207199.3.4 conn=wye kv=0.1270 pf=1 pmpp=0.33 kva=0.33 irradiance=1 temperature=25 %cutin=20 %cutout=20 effcurve=MyEff P-TCurve=MyPvsT Daily=IRRAD_DIA TDaily=TEMP_DIA
New PVSystem.GD_52d7e3800fa9ceae14b3f786fc6966d438e4f3ab54c6a112fa978483fe3023ec_1 phases=1 bus1=node_408207199.1.4 conn=wye kv=0.1270 pf=1 pmpp=0.38 kva=0.38 irradiance=1 temperature=25 %cutin=20 %cutout=20 effcurve=MyEff P-TCurve=MyPvsT Daily=IRRAD_DIA TDaily=TEMP_DIA
New PVSystem.GD_52d7e3800fa9ceae14b3f786fc6966d438e4f3ab54c6a112fa978483fe3023ec_2 phases=1 bus1=node_408207199.2.4 conn=wye kv=0.1270 pf=1 pmpp=0.38 kva=0.38 irradiance=1 temperature=25 %cutin=20 %cutout=20 effcurve=MyEff P-TCurve=MyPvsT Daily=IRRAD_DIA TDaily=TEMP_DIA
New PVSystem.GD_52d7e3800fa9ceae14b3f786fc6966d438e4f3ab54c6a112fa978483fe3023ec_3 phases=1 bus1=node_408207199.3.4 conn=wye kv=0.1270 pf=1 pmpp=0.38 kva=0.38 irradiance=1 temperature=25 %cutin=20 %cutout=20 effcurve=MyEff P-TCurve=MyPvsT Daily=IRRAD_DIA TDaily=TEMP_DIA
New PVSystem.GD_f41eff7b578d1b7a46a1b25ee60a1bf6e0647c675892d9ada5cdc606894d0391_1 phases=1 bus1=node_408207199.1.4 conn=wye kv=0.1270 pf=1 pmpp=0.86 kva=0.86 irradiance=1 temperature=25 %cutin=20 %cutout=20 effcurve=MyEff P-TCurve=MyPvsT Daily=IRRAD_DIA TDaily=TEMP_DIA
New PVSystem.GD_f41eff7b578d1b7a46a1b25ee60a1bf6e0647c675892d9ada5cdc606894d0391_2 phases=1 bus1=node_408207199.2.4 conn=wye kv=0.1270 pf=1 pmpp=0.86 kva=0.86 irradiance=1 temperature=25 %cutin=20 %cutout=20 effcurve=MyEff P-TCurve=MyPvsT Daily=IRRAD_DIA TDaily=TEMP_DIA
New PVSystem.GD_f41eff7b578d1b7a46a1b25ee60a1bf6e0647c675892d9ada5cdc606894d0391_3 phases=1 bus1=node_408207199.3.4 conn=wye kv=0.1270 pf=1 pmpp=0.86 kva=0.86 irradiance=1 temperature=25 %cutin=20 %cutout=20 effcurve=MyEff P-TCurve=MyPvsT Daily=IRRAD_DIA TDaily=TEMP_DIA
...
